*SPEF "1481-1998"
*DESIGN "as_4bit"
*DATE "Sun Apr  5 08:04:49 2026"
*VENDOR "Synopsys, Inc."
*PROGRAM "icc2 /home/synopsys_install/icc2/W-2024.09/linux64/nwtn/bin/icc2_exec"
*VERSION "W-2024.09 Aug 25, 2024"
*DESIGN_FLOW "ICC2 SPEF DR"
*DIVIDER /
*DELIMITER :
*BUS_DELIMITER [ ]
*T_UNIT 1 NS
*C_UNIT 1 FF
*R_UNIT 1 OHM
*L_UNIT 1 HENRY

// XY_UNIT 1 UM
// PARASITIC_TECH p2 at 125.000 degree

*NAME_MAP
*1 clk
*2 rst
*3 A[3]
*4 A[2]
*5 A[1]
*6 A[0]
*7 B[3]
*8 B[2]
*9 B[1]
*10 B[0]
*11 opcode[1]
*12 opcode[0]
*13 result[3]
*14 result[2]
*15 result[1]
*16 result[0]
*17 carry
*18 VDD
*19 VSS
*20 B_reg_reg[3]
*21 B_reg_reg[2]
*22 B_reg_reg[1]
*23 B_reg_reg[0]
*24 opcode_reg_reg[1]
*25 opcode_reg_reg[0]
*26 A_reg_reg[3]
*27 A_reg_reg[2]
*28 A_reg_reg[1]
*29 A_reg_reg[0]
*30 result_reg[3]
*31 result_reg[2]
*32 result_reg[1]
*33 result_reg[0]
*34 carry_reg
*35 intadd_0/U4
*36 intadd_0/U3
*37 intadd_0/U2
*38 U28
*39 U29
*40 U30
*41 U31
*42 U33
*43 U34
*44 U35
*45 U36
*46 U37
*47 U38
*48 U39
*49 U40
*50 U41
*51 U42
*52 U43
*53 U44
*54 U45
*55 U46
*56 ropt_h_inst_560
*57 ropt_h_inst_561
*58 ropt_h_inst_562
*59 ropt_h_inst_563
*60 ropt_h_inst_564
*61 ropt_h_inst_565
*62 ropt_h_inst_566
*63 ropt_h_inst_567
*64 ropt_h_inst_568
*65 ropt_net_0
*66 alu_carry
*67 n23
*68 n24
*69 n25
*70 n26
*71 n27
*72 intadd_0/CI
*73 intadd_0/SUM[2]
*74 intadd_0/SUM[1]
*75 intadd_0/SUM[0]
*76 intadd_0/n3
*77 intadd_0/n2
*78 intadd_0/n1
*79 n29
*80 n30
*81 n31
*82 n32
*83 n33
*84 n34
*85 n35
*86 n36
*87 n37
*88 n38
*89 n39
*90 n40
*91 A_reg[3]
*92 A_reg[2]
*93 A_reg[1]
*94 A_reg[0]
*95 B_reg[3]
*96 B_reg[2]
*97 B_reg[1]
*98 B_reg[0]
*99 opcode_reg[1]
*100 opcode_reg[0]
*101 ropt_net_1
*102 ropt_net_2
*103 ropt_net_3
*104 ropt_net_4
*105 ropt_net_5
*106 ropt_net_6
*107 ropt_net_7
*108 ropt_net_8

*PORTS

*1 I *C 3.024 20.207
*2 I *C 6.071 12.600
*3 I *C 6.071 4.088
*4 I *C 23.544 0.143
*5 I *C 16.856 0.143
*6 I *C 10.168 0.143
*7 I *C 27.641 12.600
*8 I *C 27.641 4.088
*9 I *C 30.688 20.207
*10 I *C 33.569 33.880
*11 I *C 33.569 24.760
*12 I *C 28.864 41.625
*13 O *C 20.960 41.625
*14 O *C 12.904 41.625
*15 O *C 5.000 41.625
*16 O *C 0.143 33.880
*17 O *C 0.143 24.760
*18 I *C 16.856 20.884
*19 I *C 16.856 20.884

*D_NET *65 0.6665891 //LENGTH 10.300 LUMPCC 0 DR

*CONN
*I *56:Y O *L 0 *C 15.072 30.677
*I *33:D I *L 0.557097 *C 7.280 30.688
*N *65:2 *C 14.424 30.354
*N *65:3 *C 12.296 30.354
*N *65:4 *C 7.280 30.676
*N *65:5 *C 7.280 30.536
*N *65:6 *C 7.294 30.536
*N *65:7 *C 12.283 30.536
*N *65:8 *C 12.296 30.524
*N *65:9 *C 12.309 30.536
*N *65:10 *C 14.411 30.536
*N *65:11 *C 14.424 30.524
*N *65:12 *C 14.424 30.536
*N *65:13 *C 14.564 30.536
*N *65:14 *C 14.576 30.550
*N *65:15 *C 14.576 31.009
*N *65:16 *C 14.576 31.021
*N *65:17 *C 14.576 30.840
*N *65:18 *C 15.171 30.840
*N *65:19 *C 15.184 30.827
*N *65:20 *C 15.184 30.671
*N *65:21 *C 15.171 30.657

*CAP
0 *56:Y 0.01334997
1 *33:D 0.001
2 *65:2 0.009094556
3 *65:3 0.008213451
4 *65:4 0.007427523
5 *65:5 0.008571055
6 *65:6 0.1638898
7 *65:7 0.1638899
8 *65:8 0.004655731
9 *65:9 0.06654084
10 *65:10 0.06654084
11 *65:11 0.005536836
12 *65:12 0.007560279
13 *65:13 0.007560178
14 *65:14 0.01759808
15 *65:15 0.01759808
16 *65:16 0.005344845
17 *65:17 0.03104933
18 *65:18 0.02214641
19 *65:19 0.01354029
20 *65:20 0.0137252
21 *65:21 0.01175584

*RES
0 *56:Y *65:21 0.1658334
1 *65:4 *33:D 1
2 *65:5 *65:4 0.2325
3 *65:6 *65:5 0.5
4 *65:7 *65:6 8.908929
5 *65:8 *65:7 0.5
6 *65:8 *65:3 0.2825
7 *65:9 *65:8 0.5
8 *65:11 *65:10 0.5
9 *65:11 *65:2 0.2825
10 *65:10 *65:9 3.751786
11 *65:12 *65:11 0.5
12 *65:14 *65:13 0.5
13 *65:13 *65:12 0.2325
14 *65:15 *65:14 0.8196428
15 *65:16 *65:15 0.5
16 *65:19 *65:18 0.5
17 *65:18 *65:17 1.061607
18 *65:21 *65:20 1
19 *65:20 *65:19 0.2785715
20 *65:17 *65:16 0.3232143

*END

*D_NET *1 4.663219 //LENGTH 67.771 LUMPCC 0 DR

*CONN
*P *1 I *L 0 *C 3.024 20.323
*I *34:CLK I *L 0.715443 *C 5.912 25.216
*I *32:CLK I *L 0.715443 *C 6.824 28.560
*I *33:CLK I *L 0.715443 *C 7.584 31.600
*I *31:CLK I *L 0.715443 *C 8.952 34.944
*I *23:CLK I *L 0.715443 *C 13.208 34.944
*I *30:CLK I *L 0.715443 *C 17.464 34.944
*I *25:CLK I *L 0.715443 *C 18.376 31.904
*I *24:CLK I *L 0.715443 *C 18.640 28.560
*I *26:CLK I *L 0.715443 *C 11.688 18.528
*I *29:CLK I *L 0.715443 *C 11.992 18.224
*I *20:CLK I *L 0.715443 *C 12.296 14.880
*I *22:CLK I *L 0.715443 *C 15.944 18.528
*I *28:CLK I *L 0.715443 *C 16.552 18.224
*I *21:CLK I *L 0.715443 *C 18.072 11.840
*I *27:CLK I *L 0.715443 *C 17.768 15.184
*N *1:16 *C 17.768 15.171
*N *1:17 *C 17.768 15.032
*N *1:18 *C 18.072 11.840
*N *1:19 *C 18.072 11.979
*N *1:20 *C 18.059 11.992
*N *1:21 *C 17.630 11.992
*N *1:22 *C 17.616 12.006
*N *1:23 *C 17.616 15.032
*N *1:24 *C 17.602 15.032
*N *1:25 *C 15.958 15.032
*N *1:26 *C 15.944 15.046
*N *1:27 *C 16.552 18.212
*N *1:28 *C 16.552 18.072
*N *1:29 *C 16.538 18.072
*N *1:30 *C 15.958 18.072
*N *1:31 *C 15.944 18.072
*N *1:32 *C 15.944 18.502
*N *1:33 *C 15.944 18.668
*N *1:34 *C 15.931 18.680
*N *1:35 *C 12.296 14.894
*N *1:36 *C 12.296 18.072
*N *1:37 *C 11.992 18.210
*N *1:38 *C 11.992 18.072
*N *1:39 *C 12.144 18.072
*N *1:40 *C 12.144 18.666
*N *1:41 *C 12.144 18.680
*N *1:42 *C 11.688 18.528
*N *1:43 *C 11.688 18.668
*N *1:44 *C 11.688 18.680
*N *1:45 *C 10.030 18.680
*N *1:46 *C 10.016 18.694
*N *1:47 *C 10.016 20.338
*N *1:48 *C 10.001 20.352
*N *1:49 *C 18.541 28.560
*N *1:50 *C 18.528 28.574
*N *1:51 *C 18.528 31.904
*N *1:52 *C 18.376 31.904
*N *1:53 *C 18.376 34.474
*N *1:54 *C 18.363 34.488
*N *1:55 *C 17.464 34.931
*N *1:56 *C 17.464 34.502
*N *1:57 *C 17.464 34.488
*N *1:58 *C 13.208 34.931
*N *1:59 *C 13.208 34.502
*N *1:60 *C 13.208 34.488
*N *1:61 *C 13.208 34.792
*N *1:62 *C 8.952 34.931
*N *1:63 *C 8.952 34.792
*N *1:64 *C 8.952 34.792
*N *1:65 *C 7.598 34.792
*N *1:66 *C 7.584 34.779
*N *1:67 *C 7.584 31.614
*N *1:68 *C 7.584 31.461
*N *1:69 *C 7.571 31.448
*N *1:70 *C 6.838 31.448
*N *1:71 *C 6.824 31.434
*N *1:72 *C 6.824 28.574
*N *1:73 *C 6.824 29.016
*N *1:74 *C 6.811 29.016
*N *1:75 *C 5.926 29.016
*N *1:76 *C 5.912 29.003
*N *1:77 *C 5.912 25.230
*N *1:78 *C 5.912 25.368
*N *1:79 *C 6.064 25.368
*N *1:80 *C 6.064 20.366
*N *1:81 *C 6.064 20.352
*N *1:82 *C 3.039 20.352
*N *1:83 *C 3.024 20.352

*CAP
0 *1 0.004663111
1 *34:CLK 0.001
2 *32:CLK 0.001
3 *33:CLK 0.001
4 *31:CLK 0.001
5 *23:CLK 0.001
6 *30:CLK 0.001
7 *25:CLK 0.001
8 *24:CLK 0.01317312
9 *26:CLK 0.001
10 *29:CLK 0.001
11 *20:CLK 0.001
12 *22:CLK 0.001
13 *28:CLK 0.001
14 *21:CLK 0.001
15 *27:CLK 0.001
16 *1:16 0.007222853
17 *1:17 0.01698744
18 *1:18 0.007622401
19 *1:19 0.008765933
20 *1:20 0.0160993
21 *1:21 0.0160993
22 *1:22 0.1269886
23 *1:23 0.1338307
24 *1:24 0.05222477
25 *1:25 0.05222477
26 *1:26 0.1132866
27 *1:27 0.006940207
28 *1:28 0.008083738
29 *1:29 0.02037186
30 *1:30 0.02037186
31 *1:31 0.1315801
32 *1:32 0.02239771
33 *1:33 0.005247755
34 *1:34 0.1206154
35 *1:35 0.1107654
36 *1:36 0.1197799
37 *1:37 0.008065465
38 *1:38 0.01707998
39 *1:39 0.04361786
40 *1:40 0.02965493
41 *1:41 0.1338609
42 *1:42 0.008541604
43 *1:43 0.009685135
44 *1:44 0.05926231
45 *1:45 0.04601684
46 *1:46 0.05170683
47 *1:47 0.05189174
48 *1:48 0.1396564
49 *1:49 0.011579
50 *1:50 0.1458839
51 *1:51 0.1540674
52 *1:52 0.1086545
53 *1:53 0.1032086
54 *1:54 0.03593471
55 *1:55 0.03238334
56 *1:56 0.03352687
57 *1:57 0.1809046
58 *1:58 0.01816698
59 *1:59 0.01931052
60 *1:60 0.1533324
61 *1:61 0.1447296
62 *1:62 0.006715893
63 *1:63 0.007859424
64 *1:64 0.1744859
65 *1:65 0.03989784
66 *1:66 0.1031265
67 *1:67 0.111382
68 *1:68 0.00761996
69 *1:69 0.02361557
70 *1:70 0.02361557
71 *1:71 0.09338356
72 *1:72 0.01905612
73 *1:73 0.1153622
74 *1:74 0.03160843
75 *1:75 0.03160843
76 *1:76 0.1317871
77 *1:77 0.00716982
78 *1:78 0.1510036
79 *1:79 0.16999
80 *1:80 0.1610507
81 *1:81 0.2528857
82 *1:82 0.1068603
83 *1:83 0.003068984

*RES
0 *1 *1:83 0.09166668
1 *1:49 *24:CLK 0.1658334
2 *1:50 *1:49 1
3 *1:52 *25:CLK 1
4 *1:52 *1:51 0.2714286
5 *1:16 *27:CLK 1
6 *1:22 *1:21 0.5
7 *1:21 *1:20 0.7660714
8 *1:19 *1:18 0.2325
9 *1:20 *1:19 0.5
10 *1:18 *21:CLK 1
11 *1:53 *1:52 4.590179
12 *1:54 *1:53 0.5
13 *1:56 *1:55 0.7660714
14 *1:57 *1:56 0.5
15 *1:57 *1:54 1.604464
16 *1:55 *30:CLK 1
17 *1:32 *22:CLK 1
18 *1:32 *1:31 0.7678573
19 *1:31 *1:30 0.5
20 *1:31 *1:26 5.404465
21 *1:30 *1:29 1.0375
22 *1:28 *1:27 0.2325
23 *1:29 *1:28 0.5
24 *1:27 *28:CLK 1
25 *1:23 *1:22 5.404464
26 *1:23 *1:17 0.2714286
27 *1:24 *1:23 0.5
28 *1:26 *1:25 0.5
29 *1:25 *1:24 2.9375
30 *1:59 *1:58 0.7660714
31 *1:60 *1:59 0.5
32 *1:60 *1:57 7.6
33 *1:58 *23:CLK 1
34 *1:33 *1:32 0.2758334
35 *1:34 *1:33 0.5
36 *1:35 *20:CLK 1
37 *1:40 *1:39 1.061607
38 *1:41 *1:40 0.5
39 *1:41 *1:34 6.761607
40 *1:37 *29:CLK 1
41 *1:43 *1:42 0.2325
42 *1:44 *1:43 0.5
43 *1:44 *1:41 0.8142858
44 *1:42 *26:CLK 1
45 *1:63 *1:62 0.2325
46 *1:64 *1:63 0.5
47 *1:64 *1:61 7.6
48 *1:62 *31:CLK 1
49 *1:66 *1:65 0.5
50 *1:65 *1:64 2.41875
51 *1:67 *33:CLK 1
52 *1:67 *1:66 5.651786
53 *1:68 *1:67 0.255
54 *1:69 *1:68 0.5
55 *1:71 *1:70 0.5
56 *1:70 *1:69 1.308929
57 *1:72 *32:CLK 1
58 *1:46 *1:45 0.5
59 *1:45 *1:44 2.961607
60 *1:48 *1:47 1
61 *1:47 *1:46 2.9375
62 *1:81 *1:80 1
63 *1:81 *1:48 7.874001
64 *1:80 *1:79 8.933037
65 *1:73 *1:72 0.7901787
66 *1:73 *1:71 4.31875
67 *1:74 *1:73 0.5
68 *1:76 *1:75 0.5
69 *1:75 *1:74 1.580357
70 *1:77 *34:CLK 1
71 *1:82 *1:81 6.050001
72 *1:83 *1:82 1
73 *1:78 *1:77 0.2473214
74 *1:78 *1:76 6.49018
75 *1:79 *1:78 0.2714286
76 *1:38 *1:37 0.2473214
77 *1:39 *1:38 0.2714286
78 *1:39 *1:36 0.2714286
79 *1:36 *1:35 5.675893
80 *1:17 *1:16 0.2473214
81 *1:51 *1:50 5.947322
82 *1:61 *1:60 0.5428572

*END

*D_NET *2 0.3821116 //LENGTH 6.584 LUMPCC 0 DR

*CONN
*P *2 I *L 0 *C 6.186 12.600
*I *38:A I *L 2.81074 *C 12.418 12.600
*N *2:2 *C 11.688 12.418
*N *2:3 *C 11.703 12.600
*N *2:4 *C 11.688 12.588
*N *2:5 *C 11.675 12.600

*CAP
0 *2 0.1468897
1 *38:A 0.03591451
2 *2:2 0.01162478
3 *2:3 0.03432039
4 *2:4 0.008251618
5 *2:5 0.1451106

*RES
0 *2 *2:5 9.800894
1 *2:3 *38:A 1.43
2 *2:4 *2:3 1
3 *2:4 *2:2 0.2825
4 *2:5 *2:4 0.5

*END

*D_NET *3 1.265899 //LENGTH 20.715 LUMPCC 0 DR

*CONN
*P *3 I *L 0 *C 6.186 4.088
*I *26:D I *L 0.557097 *C 11.384 19.440
*N *3:2 *C 11.384 19.427
*N *3:3 *C 11.384 4.102
*N *3:4 *C 11.370 4.088

*CAP
0 *3 0.1386209
1 *26:D 0.001
2 *3:2 0.4941462
3 *3:3 0.4952897
4 *3:4 0.1368418

*RES
0 *3 *3:4 9.258037
1 *3:2 *26:D 1
2 *3:3 *3:2 27.36607
3 *3:4 *3:3 0.5

*END

*D_NET *4 1.372844 //LENGTH 22.539 LUMPCC 0 DR

*CONN
*P *4 I *L 0 *C 23.544 0.258
*I *27:D I *L 0.557097 *C 17.451 16.096
*N *4:2 *C 17.325 16.096
*N *4:3 *C 17.312 16.082
*N *4:4 *C 17.312 14.438
*N *4:5 *C 17.326 14.424
*N *4:6 *C 23.530 14.424
*N *4:7 *C 23.544 14.411

*CAP
0 *4 0.4273212
1 *27:D 0.0107802
2 *4:2 0.009186075
3 *4:3 0.06840923
4 *4:4 0.06822432
5 *4:5 0.1816903
6 *4:6 0.1816903
7 *4:7 0.4255421

*RES
0 *4 *4:7 25.27232
1 *4:2 *27:D 0.2116667
2 *4:3 *4:2 1
3 *4:4 *4:3 2.9375
4 *4:5 *4:4 0.5
5 *4:7 *4:6 0.5
6 *4:6 *4:5 11.08036

*END

*D_NET *5 1.14815 //LENGTH 17.937 LUMPCC 0 DR

*CONN
*P *5 I *L 0 *C 16.856 0.258
*I *28:D I *L 0.557097 *C 16.248 17.312
*N *5:2 *C 16.248 17.299
*N *5:3 *C 16.248 15.958
*N *5:4 *C 16.262 15.944
*N *5:5 *C 16.843 15.944
*N *5:6 *C 16.856 15.931

*CAP
0 *5 0.4973628
1 *28:D 0.001
2 *5:2 0.05559722
3 *5:3 0.05674075
4 *5:4 0.02093288
5 *5:5 0.02093288
6 *5:6 0.4955837

*RES
0 *5 *5:6 27.98661
1 *5:2 *28:D 1
2 *5:3 *5:2 2.394643
3 *5:4 *5:3 0.5
4 *5:6 *5:5 0.5
5 *5:5 *5:4 1.0375

*END

*D_NET *6 1.120517 //LENGTH 18.854 LUMPCC 0 DR

*CONN
*P *6 I *L 0 *C 10.168 0.258
*I *29:D I *L 0.557097 *C 11.688 17.312
*N *6:2 *C 11.688 17.300
*N *6:3 *C 11.688 17.160
*N *6:4 *C 11.675 17.160
*N *6:5 *C 10.181 17.160
*N *6:6 *C 10.168 17.146

*CAP
0 *6 0.5084645
1 *29:D 0.001
2 *6:2 0.008011983
3 *6:3 0.009155514
4 *6:4 0.04359952
5 *6:5 0.04359952
6 *6:6 0.5066854

*RES
0 *6 *6:6 30.15804
1 *6:2 *29:D 1
2 *6:3 *6:2 0.2325
3 *6:4 *6:3 0.5
4 *6:6 *6:5 0.5
5 *6:5 *6:4 2.666071

*END

*D_NET *7 0.9678594 //LENGTH 17.067 LUMPCC 0 DR

*CONN
*P *7 I *L 0 *C 27.526 12.600
*I *20:D I *L 0.557097 *C 11.992 13.968
*N *7:2 *C 11.992 13.955
*N *7:3 *C 11.992 12.614
*N *7:4 *C 12.006 12.600

*CAP
0 *7 0.4366504
1 *20:D 0.001
2 *7:2 0.0470971
3 *7:3 0.04824064
4 *7:4 0.4348713

*RES
0 *7 *7:4 27.71518
1 *7:2 *20:D 1
2 *7:3 *7:2 2.394643
3 *7:4 *7:3 0.5

*END

*D_NET *8 1.168753 //LENGTH 19.003 LUMPCC 0 DR

*CONN
*P *8 I *L 0 *C 27.526 4.088
*I *21:D I *L 0.557097 *C 17.768 12.752
*N *8:2 *C 17.768 12.739
*N *8:3 *C 17.768 11.688
*N *8:4 *C 17.616 11.688
*N *8:5 *C 17.616 4.102
*N *8:6 *C 17.630 4.088

*CAP
0 *8 0.2656269
1 *21:D 0.001
2 *8:2 0.05776013
3 *8:3 0.06763369
4 *8:4 0.260807
5 *8:5 0.252077
6 *8:6 0.2638479

*RES
0 *8 *8:6 17.67232
1 *8:2 *21:D 1
2 *8:5 *8:4 13.54732
3 *8:6 *8:5 0.5
4 *8:4 *8:3 0.2714286
5 *8:3 *8:2 1.875893

*END

*D_NET *9 1.219414 //LENGTH 16.290 LUMPCC 0 DR

*CONN
*P *9 I *L 0 *C 30.688 20.323
*I *22:D I *L 0.557097 *C 15.640 19.440
*N *9:2 *C 15.640 19.454
*N *9:3 *C 15.640 20.338
*N *9:4 *C 15.655 20.352
*N *9:5 *C 30.673 20.352
*N *9:6 *C 30.688 20.352

*CAP
0 *9 0.00468331
1 *22:D 0.001
2 *9:2 0.03215908
3 *9:3 0.03348752
4 *9:4 0.5724977
5 *9:5 0.5724977
6 *9:6 0.003089183

*RES
0 *9 *9:6 0.09166668
1 *9:2 *22:D 1
2 *9:4 *9:3 1
3 *9:3 *9:2 1.580357
4 *9:5 *9:4 30.036
5 *9:6 *9:5 1

*END

*D_NET *10 1.29838 //LENGTH 20.872 LUMPCC 0 DR

*CONN
*P *10 I *L 0 *C 33.454 33.880
*I *23:D I *L 0.557097 *C 12.904 34.032
*N *10:2 *C 12.904 34.020
*N *10:3 *C 12.904 33.880
*N *10:4 *C 12.918 33.880

*CAP
0 *10 0.6415333
1 *23:D 0.001
2 *10:2 0.007474632
3 *10:3 0.008618164
4 *10:4 0.6397542

*RES
0 *10 *10:4 36.67233
1 *10:2 *23:D 1
2 *10:3 *10:2 0.2325
3 *10:4 *10:3 0.5

*END

*D_NET *11 1.300338 //LENGTH 20.521 LUMPCC 0 DR

*CONN
*P *11 I *L 0 *C 33.454 24.760
*I *24:D I *L 0.557097 *C 18.364 29.472
*N *11:2 *C 18.236 29.472
*N *11:3 *C 18.224 29.459
*N *11:4 *C 18.224 27.814
*N *11:5 *C 18.238 27.800
*N *11:6 *C 23.986 27.800
*N *11:7 *C 24.000 27.787
*N *11:8 *C 24.000 24.774
*N *11:9 *C 24.014 24.760

*CAP
0 *11 0.2596208
1 *24:D 0.0121871
2 *11:2 0.01059297
3 *11:3 0.07683706
4 *11:4 0.07665215
5 *11:5 0.2049299
6 *11:6 0.2049299
7 *11:7 0.09837302
8 *11:8 0.09837302
9 *11:9 0.2578418

*RES
0 *11 *11:9 16.85804
1 *11:2 *24:D 0.2116667
2 *11:3 *11:2 1
3 *11:4 *11:3 2.9375
4 *11:5 *11:4 0.5
5 *11:7 *11:6 0.5
6 *11:6 *11:5 10.26607
7 *11:8 *11:7 5.380358
8 *11:9 *11:8 0.5

*END

*D_NET *12 1.342471 //LENGTH 20.698 LUMPCC 0 DR

*CONN
*P *12 I *L 0 *C 28.864 41.510
*I *25:D I *L 0.557097 *C 18.042 32.816
*N *12:2 *C 17.631 32.816
*N *12:3 *C 17.616 32.830
*N *12:4 *C 17.616 34.779
*N *12:5 *C 17.630 34.792
*N *12:6 *C 28.851 34.792
*N *12:7 *C 28.864 34.806

*CAP
0 *12 0.2011575
1 *25:D 0.02843048
2 *12:2 0.02683635
3 *12:3 0.08756143
4 *12:4 0.08737652
5 *12:5 0.3558652
6 *12:6 0.3558652
7 *12:7 0.1993785

*RES
0 *12 *12:7 11.97232
1 *12:2 *25:D 0.8220001
2 *12:3 *12:2 1
3 *12:4 *12:3 3.480358
4 *12:5 *12:4 0.5
5 *12:7 *12:6 0.5
6 *12:6 *12:5 20.0375

*END

*D_NET *13 0.4373668 //LENGTH 7.260 LUMPCC 0 DR

*CONN
*I *30:Q O *L 0 *C 20.808 34.488
*P *13 O *L 0 *C 20.960 41.510
*N *13:2 *C 20.960 34.488
*N *13:3 *C 20.809 34.488

*CAP
0 *30:Q 0.001
1 *13 0.2127324
2 *13:2 0.2196447
3 *13:3 0.003989704

*RES
0 *30:Q *13:3 1
1 *13:3 *13:2 0.2696429
2 *13:2 *13 12.53929

*END

*D_NET *14 0.5115858 //LENGTH 8.017 LUMPCC 0 DR

*CONN
*I *31:Q O *L 0 *C 12.296 34.488
*P *14 O *L 0 *C 12.904 41.510
*N *14:2 *C 12.904 37.238
*N *14:3 *C 12.891 37.224
*N *14:4 *C 12.462 37.224
*N *14:5 *C 12.448 37.211
*N *14:6 *C 12.448 35.704
*N *14:7 *C 12.296 35.704
*N *14:8 *C 12.296 34.502

*CAP
0 *31:Q 0.001
1 *14 0.1310703
2 *14:2 0.1292913
3 *14:3 0.01383413
4 *14:4 0.01383413
5 *14:5 0.05529012
6 *14:6 0.06328781
7 *14:7 0.05655965
8 *14:8 0.04741843

*RES
0 *31:Q *14:8 1
1 *14:8 *14:7 2.147322
2 *14:5 *14:4 0.5
3 *14:4 *14:3 0.7660715
4 *14:2 *14 7.629465
5 *14:3 *14:2 0.5
6 *14:7 *14:6 0.2714286
7 *14:6 *14:5 2.690179

*END

*D_NET *15 1.113388 //LENGTH 17.937 LUMPCC 0 DR

*CONN
*I *32:Q O *L 0 *C 10.168 29.016
*P *15 O *L 0 *C 5.000 41.510
*N *15:2 *C 5.000 29.638
*N *15:3 *C 5.014 29.624
*N *15:4 *C 10.155 29.624
*N *15:5 *C 10.168 29.611
*N *15:6 *C 10.168 29.030

*CAP
0 *32:Q 0.001
1 *15 0.3622393
2 *15:2 0.3604603
3 *15:3 0.1732866
4 *15:4 0.1732866
5 *15:5 0.02212962
6 *15:6 0.02098609

*RES
0 *32:Q *15:6 1
1 *15:6 *15:5 1.0375
2 *15:5 *15:4 0.5
3 *15:4 *15:3 9.180358
4 *15:2 *15 21.20089
5 *15:3 *15:2 0.5

*END

*D_NET *16 0.804863 //LENGTH 13.571 LUMPCC 0 DR

*CONN
*I *33:Q O *L 0 *C 10.928 31.144
*P *16 O *L 0 *C 0.258 33.880
*N *16:2 *C 10.915 33.880
*N *16:3 *C 10.928 33.867
*N *16:4 *C 10.928 31.158

*CAP
0 *33:Q 0.001
1 *16 0.3095711
2 *16:2 0.3077921
3 *16:3 0.09382163
4 *16:4 0.09267811

*RES
0 *33:Q *16:4 1
1 *16:4 *16:3 4.837501
2 *16:3 *16:2 0.5
3 *16:2 *16 19.02947

*END

*D_NET *17 0.5587534 //LENGTH 10.075 LUMPCC 0 DR

*CONN
*I *34:Q O *L 0 *C 9.256 25.672
*P *17 O *L 0 *C 0.258 24.760
*N *17:2 *C 9.242 24.760
*N *17:3 *C 9.256 24.774
*N *17:4 *C 9.256 25.659

*CAP
0 *34:Q 0.001
1 *17 0.2492109
2 *17:2 0.2474318
3 *17:3 0.03112714
4 *17:4 0.02998361

*RES
0 *34:Q *17:4 1
1 *17:4 *17:3 1.580357
2 *17:3 *17:2 0.5
3 *17:2 *17 16.04375

*END

*D_NET *66 0.1786918 //LENGTH 2.438 LUMPCC 0 DR

*CONN
*I *43:Y O *L 0 *C 10.776 26.128
*I *62:A I *L 0.434891 *C 10.472 27.451
*N *66:2 *C 10.472 27.314
*N *66:3 *C 10.472 27.461
*N *66:4 *C 10.486 27.496
*N *66:5 *C 10.915 27.480
*N *66:6 *C 10.928 27.448
*N *66:7 *C 10.928 26.281
*N *66:8 *C 10.927 26.280
*N *66:9 *C 10.790 26.280
*N *66:10 *C 10.776 26.268
*N *66:11 *C 10.776 26.128

*CAP
0 *43:Y 0.001
1 *62:A 0.001
2 *66:2 0.008902588
3 *66:3 0.004668683
4 *66:4 0.02249124
5 *66:5 0.02242208
6 *66:6 0.04428378
7 *66:7 0.04428378
8 *66:8 0.005330516
9 *66:9 0.005330516
10 *66:10 0.01006109
11 *66:11 0.00891756

*RES
0 *43:Y *66:11 1
1 *66:3 *62:A 1
2 *66:3 *66:2 0.245
3 *66:4 *66:3 0.5
4 *66:6 *66:5 0.5
5 *66:5 *66:4 0.7660714
6 *66:7 *66:6 2.083036
7 *66:8 *66:7 0.5
8 *66:10 *66:9 0.5
9 *66:9 *66:8 0.2455357
10 *66:11 *66:10 0.2325

*END

*D_NET *67 4.796522 //LENGTH 62.971 LUMPCC 0 DR

*CONN
*I *38:Y O *L 0 *C 13.238 12.750
*I *20:RSTB I *L 0.924894 *C 13.512 13.512
*I *28:RSTB I *L 0.924894 *C 17.768 16.856
*I *22:RSTB I *L 0.924894 *C 17.160 19.896
*I *27:RSTB I *L 0.924894 *C 18.984 16.552
*I *21:RSTB I *L 0.924894 *C 19.288 13.208
*I *24:RSTB I *L 0.924894 *C 19.896 29.928
*I *30:RSTB I *L 0.924894 *C 18.680 33.576
*I *23:RSTB I *L 0.924894 *C 14.424 33.576
*I *31:RSTB I *L 0.924894 *C 10.168 33.576
*I *33:RSTB I *L 0.924894 *C 8.800 30.232
*I *34:RSTB I *L 0.924894 *C 7.128 26.584
*I *32:RSTB I *L 0.924894 *C 8.040 29.928
*I *25:RSTB I *L 0.924894 *C 19.592 33.272
*I *29:RSTB I *L 0.924894 *C 13.208 16.856
*I *26:RSTB I *L 0.924894 *C 12.904 19.896
*N *67:16 *C 12.904 19.895
*N *67:17 *C 12.904 16.856
*N *67:18 *C 13.208 16.856
*N *67:19 *C 19.592 33.090
*N *67:20 *C 19.592 33.260
*N *67:21 *C 19.579 33.272
*N *67:22 *C 8.027 29.928
*N *67:23 *C 7.128 26.598
*N *67:24 *C 7.128 29.928
*N *67:25 *C 7.142 29.928
*N *67:26 *C 8.800 29.928
*N *67:27 *C 8.800 30.050
*N *67:28 *C 8.800 30.220
*N *67:29 *C 8.800 30.232
*N *67:30 *C 10.155 30.232
*N *67:31 *C 10.168 30.245
*N *67:32 *C 10.168 33.562
*N *67:33 *C 10.181 33.576
*N *67:34 *C 14.424 33.758
*N *67:35 *C 14.424 33.589
*N *67:36 *C 14.424 33.575
*N *67:37 *C 14.424 33.272
*N *67:38 *C 18.680 33.562
*N *67:39 *C 18.680 33.285
*N *67:40 *C 18.680 33.272
*N *67:41 *C 19.288 33.272
*N *67:42 *C 19.288 33.259
*N *67:43 *C 19.288 29.942
*N *67:44 *C 19.302 29.928
*N *67:45 *C 19.883 29.928
*N *67:46 *C 19.895 29.928
*N *67:47 *C 19.744 29.928
*N *67:48 *C 19.744 18.832
*N *67:49 *C 19.288 18.832
*N *67:50 *C 19.288 13.222
*N *67:51 *C 18.984 16.370
*N *67:52 *C 18.984 16.540
*N *67:53 *C 18.998 16.552
*N *67:54 *C 19.274 16.552
*N *67:55 *C 19.288 16.552
*N *67:56 *C 19.288 16.856
*N *67:57 *C 19.274 16.856
*N *67:58 *C 17.160 19.883
*N *67:59 *C 17.767 16.856
*N *67:60 *C 17.160 16.856
*N *67:61 *C 17.160 16.856
*N *67:62 *C 13.526 16.856
*N *67:63 *C 13.512 16.843
*N *67:64 *C 13.512 13.512
*N *67:65 *C 13.512 12.766
*N *67:66 *C 13.497 12.752

*CAP
0 *38:Y 0.01567069
1 *20:RSTB 0.001
2 *28:RSTB 0.001
3 *22:RSTB 0.001
4 *27:RSTB 0.001
5 *21:RSTB 0.001
6 *24:RSTB 0.001
7 *30:RSTB 0.001
8 *23:RSTB 0.001
9 *31:RSTB 0.001
10 *33:RSTB 0.001
11 *34:RSTB 0.001
12 *32:RSTB 0.001
13 *25:RSTB 0.001
14 *29:RSTB 0.001
15 *26:RSTB 0.001
16 *67:16 0.1057056
17 *67:17 0.1221564
18 *67:18 0.02421543
19 *67:19 0.01152056
20 *67:20 0.006818963
21 *67:21 0.01013857
22 *67:22 0.03683036
23 *67:23 0.1239338
24 *67:24 0.1648303
25 *67:25 0.0783124
26 *67:26 0.09044548
27 *67:27 0.01541715
28 *67:28 0.01071555
29 *67:29 0.07234489
30 *67:30 0.06199085
31 *67:31 0.1140543
32 *67:32 0.1111317
33 *67:33 0.162519
34 *67:34 0.0103498
35 *67:35 0.0056482
36 *67:36 0.1724228
37 *67:37 0.1658391
38 *67:38 0.01637457
39 *67:39 0.01751811
40 *67:40 0.1797878
41 *67:41 0.03577016
42 *67:42 0.1277562
43 *67:43 0.1277562
44 *67:44 0.02467492
45 *67:45 0.02467492
46 *67:46 0.002707219
47 *67:47 0.5611209
48 *67:48 0.5724123
49 *67:49 0.09112383
50 *67:50 0.1093567
51 *67:51 0.01178026
52 *67:52 0.007078657
53 *67:53 0.01469256
54 *67:54 0.01469256
55 *67:55 0.1210495
56 *67:56 0.08119391
57 *67:57 0.0811832
58 *67:58 0.1045987
59 *67:59 0.02086752
60 *67:60 0.1295323
61 *67:61 0.1994551
62 *67:62 0.1164929
63 *67:63 0.1215516
64 *67:64 0.1338116
65 *67:65 0.02541924
66 *67:66 0.01407657

*RES
0 *38:Y *67:66 0.5180001
1 *67:46 *24:RSTB 1
2 *67:46 *67:45 0.5
3 *67:20 *25:RSTB 1
4 *67:20 *67:19 0.2825
5 *67:21 *67:20 0.5
6 *67:45 *67:44 1.0375
7 *67:43 *67:42 5.923215
8 *67:44 *67:43 0.5
9 *67:42 *67:41 0.5
10 *67:41 *67:40 1.085714
11 *67:41 *67:21 0.5187501
12 *67:50 *21:RSTB 1
13 *67:55 *67:54 0.5
14 *67:55 *67:50 5.947322
15 *67:54 *67:53 0.4946429
16 *67:52 *27:RSTB 1
17 *67:52 *67:51 0.2825
18 *67:53 *67:52 0.5
19 *67:39 *67:38 0.4946429
20 *67:40 *67:39 0.5
21 *67:40 *67:37 7.6
22 *67:38 *30:RSTB 1
23 *67:56 *67:55 0.5428572
24 *67:56 *67:49 3.528572
25 *67:57 *67:56 0.5
26 *67:59 *28:RSTB 1
27 *67:58 *22:RSTB 1
28 *67:60 *67:59 1.083929
29 *67:60 *67:58 5.404465
30 *67:61 *67:60 0.5
31 *67:61 *67:57 3.775893
32 *67:35 *23:RSTB 1
33 *67:35 *67:34 0.2825
34 *67:36 *67:35 0.5
35 *67:36 *67:33 7.575893
36 *67:63 *67:62 0.5
37 *67:63 *67:18 0.5428572
38 *67:62 *67:61 6.490179
39 *67:64 *20:RSTB 1
40 *67:64 *67:63 5.947322
41 *67:66 *67:65 1
42 *67:65 *67:64 1.333036
43 *67:18 *29:RSTB 1
44 *67:18 *67:17 0.5428572
45 *67:16 *26:RSTB 1
46 *67:32 *31:RSTB 1
47 *67:32 *67:31 5.923215
48 *67:33 *67:32 0.5
49 *67:31 *67:30 0.5
50 *67:30 *67:29 2.41875
51 *67:28 *33:RSTB 1
52 *67:28 *67:27 0.2825
53 *67:29 *67:28 0.5
54 *67:29 *67:26 0.5428572
55 *67:22 *32:RSTB 1
56 *67:24 *67:23 5.947322
57 *67:24 *67:22 1.604464
58 *67:25 *67:24 0.5
59 *67:23 *34:RSTB 1
60 *67:17 *67:16 5.426786
61 *67:49 *67:48 0.8142858
62 *67:48 *67:47 19.81429
63 *67:47 *67:46 0.2696429
64 *67:26 *67:25 2.961607
65 *67:37 *67:36 0.5410715

*END

*D_NET *68 1.303528 //LENGTH 14.630 LUMPCC 0 DR

*CONN
*I *55:Y O *L 0 *C 14.133 25.520
*I *64:A I *L 0.578227 *C 17.453 36.063
*N *68:2 *C 17.325 36.053
*N *68:3 *C 17.312 36.040
*N *68:4 *C 17.312 34.184
*N *68:5 *C 17.160 34.184
*N *68:6 *C 17.160 32.678
*N *68:7 *C 17.146 32.664
*N *68:8 *C 15.046 32.664
*N *68:9 *C 15.032 32.651
*N *68:10 *C 15.032 25.686
*N *68:11 *C 15.019 25.672
*N *68:12 *C 14.286 25.672
*N *68:13 *C 14.272 25.660
*N *68:14 *C 14.272 25.520
*N *68:15 *C 14.260 25.520

*CAP
0 *55:Y 0.01125174
1 *64:A 0.009503341
2 *68:2 0.007909214
3 *68:3 0.08426172
4 *68:4 0.09312022
5 *68:5 0.07978258
6 *68:6 0.07073916
7 *68:7 0.06868415
8 *68:8 0.06868415
9 *68:9 0.359037
10 *68:10 0.359037
11 *68:11 0.02939404
12 *68:12 0.02939404
13 *68:13 0.01144349
14 *68:14 0.0116284
15 *68:15 0.009657614

*RES
0 *55:Y *68:15 0.2116667
1 *68:2 *64:A 0.2133334
2 *68:3 *68:2 1
3 *68:6 *68:5 2.690179
4 *68:7 *68:6 0.5
5 *68:9 *68:8 0.5
6 *68:8 *68:7 3.751786
7 *68:10 *68:9 12.4375
8 *68:11 *68:10 0.5
9 *68:13 *68:12 0.5
10 *68:12 *68:11 1.308929
11 *68:15 *68:14 1
12 *68:14 *68:13 0.2325
13 *68:5 *68:4 0.2714286
14 *68:4 *68:3 3.313393

*END

*D_NET *69 1.358902 //LENGTH 17.536 LUMPCC 0 DR

*CONN
*I *51:Y O *L 0 *C 19.714 27.952
*I *31:D I *L 0.557097 *C 8.648 34.032
*N *69:2 *C 8.648 34.019
*N *69:3 *C 8.648 28.117
*N *69:4 *C 8.662 28.104
*N *69:5 *C 19.274 28.104
*N *69:6 *C 19.288 28.091
*N *69:7 *C 19.288 27.952
*N *69:8 *C 19.303 27.952

*CAP
0 *51:Y 0.02374291
1 *31:D 0.001
2 *69:2 0.2071356
3 *69:3 0.2082791
4 *69:4 0.4357851
5 *69:5 0.4357851
6 *69:6 0.01242021
7 *69:7 0.01260511
8 *69:8 0.02214878

*RES
0 *51:Y *69:8 0.8220001
1 *69:2 *31:D 1
2 *69:3 *69:2 10.5375
3 *69:4 *69:3 0.5
4 *69:6 *69:5 0.5
5 *69:5 *69:4 18.95179
6 *69:8 *69:7 1
7 *69:7 *69:6 0.2325

*END

*D_NET *70 0.6388766 //LENGTH 6.102 LUMPCC 0 DR

*CONN
*I *47:Y O *L 0 *C 14.728 25.520
*I *59:A I *L 0.434891 *C 15.336 30.768
*N *70:2 *C 15.336 30.384
*N *70:3 *C 15.199 30.384
*N *70:4 *C 15.184 30.370
*N *70:5 *C 15.184 25.520
*N *70:6 *C 14.729 25.520

*CAP
0 *47:Y 0.001
1 *59:A 0.02244122
2 *70:2 0.03387058
3 *70:3 0.00983523
4 *70:4 0.2681111
5 *70:5 0.2881231
6 *70:6 0.01549526

*RES
0 *47:Y *70:6 1
1 *70:3 *70:2 0.274
2 *70:4 *70:3 1
3 *70:6 *70:5 0.8125
4 *70:2 *59:A 0.767
5 *70:5 *70:4 8.661608

*END

*D_NET *71 0.1022518 //LENGTH 1.521 LUMPCC 0 DR

*CONN
*I *40:Y O *L 0 *C 12.144 29.624
*I *56:A I *L 0.434891 *C 12.285 30.840
*N *71:2 *C 12.157 30.840
*N *71:3 *C 12.144 30.827
*N *71:4 *C 12.144 29.638

*CAP
0 *40:Y 0.001
1 *56:A 0.0110189
2 *71:2 0.009424771
3 *71:3 0.04106829
4 *71:4 0.03973985

*RES
0 *40:Y *71:4 1
1 *71:2 *56:A 0.2133334
2 *71:3 *71:2 1
3 *71:4 *71:3 2.123214

*END

*D_NET *72 0.6727893 //LENGTH 8.248 LUMPCC 0 DR

*CONN
*I *41:Y O *L 0 *C 14.576 29.472
*I *35:B I *L 1.946637 *C 16.400 26.128
*I *42:S1 I *L 3.068698 *C 17.768 29.928
*N *72:3 *C 17.768 29.915
*N *72:4 *C 17.768 29.030
*N *72:5 *C 17.755 29.016
*N *72:6 *C 16.387 26.128
*N *72:7 *C 16.096 26.128
*N *72:8 *C 16.096 29.003
*N *72:9 *C 16.096 29.016
*N *72:10 *C 14.590 29.016
*N *72:11 *C 14.576 29.030
*N *72:12 *C 14.576 29.459

*CAP
0 *41:Y 0.001
1 *35:B 0.001
2 *42:S1 0.001
3 *72:3 0.05225004
4 *72:4 0.05339357
5 *72:5 0.0662833
6 *72:6 0.01070618
7 *72:7 0.1392043
8 *72:8 0.1237965
9 *72:9 0.1261591
10 *72:10 0.05809677
11 *72:11 0.02052157
12 *72:12 0.01937804

*RES
0 *41:Y *72:12 1
1 *72:4 *72:3 1.580357
2 *72:5 *72:4 0.5
3 *72:3 *42:S1 1
4 *72:8 *72:7 5.133036
5 *72:9 *72:8 0.5
6 *72:9 *72:5 2.961608
7 *72:6 *35:B 1
8 *72:11 *72:10 0.5
9 *72:10 *72:9 2.690179
10 *72:12 *72:11 0.7660714
11 *72:7 *72:6 0.5187501

*END

*D_NET *73 0.4753629 //LENGTH 5.275 LUMPCC 0 DR

*CONN
*I *37:S O *L 0 *C 11.840 24.456
*I *63:A I *L 0.578227 *C 13.664 27.451
*N *73:2 *C 13.664 27.438
*N *73:3 *C 13.664 25.989
*N *73:4 *C 13.651 25.976
*N *73:5 *C 13.373 25.976
*N *73:6 *C 13.360 25.963
*N *73:7 *C 13.360 25.078
*N *73:8 *C 13.347 25.064
*N *73:9 *C 11.854 25.064
*N *73:10 *C 11.840 25.050
*N *73:11 *C 11.840 24.457

*CAP
0 *37:S 0.001
1 *63:A 0.001
2 *73:2 0.1014511
3 *73:3 0.1021961
4 *73:4 0.0147606
5 *73:5 0.0147606
6 *73:6 0.04889464
7 *73:7 0.04889464
8 *73:8 0.04707015
9 *73:9 0.04707015
10 *73:10 0.02462451
11 *73:11 0.02364039

*RES
0 *37:S *73:11 1
1 *73:2 *63:A 1
2 *73:3 *73:2 2.585714
3 *73:4 *73:3 0.5
4 *73:6 *73:5 0.5
5 *73:5 *73:4 0.4946429
6 *73:7 *73:6 1.580357
7 *73:8 *73:7 0.5
8 *73:10 *73:9 0.5
9 *73:9 *73:8 2.666071
10 *73:11 *73:10 1.059821

*END

*D_NET *74 0.6115394 //LENGTH 6.371 LUMPCC 0 DR

*CONN
*I *36:S O *L 0 *C 19.896 22.328
*I *61:A I *L 0.578227 *C 21.112 26.021
*N *74:2 *C 21.112 26.035
*N *74:3 *C 21.112 26.584
*N *74:4 *C 20.961 26.584
*N *74:5 *C 20.947 26.584
*N *74:6 *C 19.910 26.584
*N *74:7 *C 19.896 26.571
*N *74:8 *C 19.896 22.329

*CAP
0 *36:S 0.001
1 *61:A 0.001
2 *74:2 0.02155177
3 *74:3 0.03133341
4 *74:4 0.005478578
5 *74:5 0.04049139
6 *74:6 0.04049139
7 *74:7 0.2355885
8 *74:8 0.2346043

*RES
0 *36:S *74:8 1
1 *74:2 *61:A 1
2 *74:4 *74:3 0.2696429
3 *74:5 *74:4 0.5
4 *74:7 *74:6 0.5
5 *74:6 *74:5 1.851786
6 *74:8 *74:7 7.574108
7 *74:3 *74:2 0.9812501

*END

*D_NET *75 0.2662759 //LENGTH 3.275 LUMPCC 0 DR

*CONN
*I *35:S O *L 0 *C 18.224 25.672
*I *47:A2 I *L 0.507719 *C 15.670 25.976
*N *75:2 *C 15.944 25.844
*N *75:3 *C 15.929 25.976
*N *75:4 *C 15.944 25.963
*N *75:5 *C 15.945 25.976
*N *75:6 *C 18.210 25.976
*N *75:7 *C 18.224 25.963
*N *75:8 *C 18.224 25.673

*CAP
0 *35:S 0.001
1 *47:A2 0.02098064
2 *75:2 0.01542691
3 *75:3 0.01805807
4 *75:4 0.01072531
5 *75:5 0.0827354
6 *75:6 0.0827354
7 *75:7 0.01779916
8 *75:8 0.01681504

*RES
0 *35:S *75:8 1
1 *75:3 *47:A2 0.5180001
2 *75:4 *75:3 1
3 *75:4 *75:2 0.1991667
4 *75:5 *75:4 0.5
5 *75:7 *75:6 0.5
6 *75:6 *75:5 4.045536
7 *75:8 *75:7 0.5169643

*END

*D_NET *76 0.4799963 //LENGTH 7.146 LUMPCC 0 DR

*CONN
*I *35:CO O *L 0 *C 18.528 25.824
*I *36:B I *L 1.946637 *C 21.720 22.784
*N *76:2 *C 21.720 22.797
*N *76:3 *C 21.720 23.227
*N *76:4 *C 21.707 23.240
*N *76:5 *C 21.126 23.240
*N *76:6 *C 21.112 23.254
*N *76:7 *C 21.112 25.659
*N *76:8 *C 21.099 25.672
*N *76:9 *C 18.390 25.672
*N *76:10 *C 18.376 25.672
*N *76:11 *C 18.376 25.812
*N *76:12 *C 18.391 25.824

*CAP
0 *35:CO 0.01435595
1 *36:B 0.001
2 *76:2 0.01819057
3 *76:3 0.0193341
4 *76:4 0.02143286
5 *76:5 0.02143296
6 *76:6 0.07273613
7 *76:7 0.07273613
8 *76:8 0.09867868
9 *76:9 0.09867857
10 *76:10 0.01423681
11 *76:11 0.01442172
12 *76:12 0.01276182

*RES
0 *35:CO *76:12 0.274
1 *76:2 *36:B 1
2 *76:3 *76:2 0.7660714
3 *76:4 *76:3 0.5
4 *76:5 *76:4 1.0375
5 *76:6 *76:5 0.5
6 *76:8 *76:7 0.5
7 *76:7 *76:6 4.294643
8 *76:10 *76:9 0.5
9 *76:9 *76:8 4.8375
10 *76:12 *76:11 1
11 *76:11 *76:10 0.2325

*END

*D_NET *77 0.637668 //LENGTH 7.626 LUMPCC 0 DR

*CONN
*I *36:CO O *L 0 *C 19.440 22.480
*I *37:B I *L 1.946637 *C 13.664 24.000